%chk=geometry.chk
%mem=12GB
%nprocshared=12

#P OPT wB97XD/6-311+G*

TitleMe

0 1
 C                  0.78808821    1.24068913    0.02492945
 C                  2.17658059    1.20482783    0.01961732
 C                  2.84604848   -0.01987894   -0.00618268
 C                  0.06874473    0.04470619    0.01965705
 H                  0.27342680    2.19328085    0.03465240
 H                  2.76334949    2.11354885    0.03637404
 N                  4.30685693    0.04595834   -0.03962592
 O                  4.95572160   -1.01919047   -0.09159428
 O                  4.82869599    1.18725590   -0.03712921
 C                  0.74008238   -1.17504363    0.01238440
 H                  0.18852059   -2.10639187    0.02395406
 C                  2.13307197   -1.21959994   -0.00494717
 H                  2.57694665   -2.19296858    0.01575932
 Br                -1.84106953    0.06852157    0.03158712





 