14
geometry.out	Energy: -1888980.0742326
C          0.28372       -1.21231       -0.00010
C         -1.10303       -1.21311       -0.00009
C         -1.77390       -0.00001        0.00002
C          0.96532       -0.00004        0.00000
H          0.82842       -2.14824       -0.00017
H         -1.66131       -2.14003       -0.00016
N         -3.24811        0.00001        0.00000
O         -3.80979        1.07688       -0.00025
O         -3.80982       -1.07684        0.00023
C          0.28372        1.21227        0.00011
H          0.82850        2.14816        0.00019
C         -1.10300        1.21310        0.00009
H         -1.66124        2.14004        0.00012
Br         2.85835        0.00001       -0.00000
