%chk=geometry.chk
%mem=9GB
%nprocshared=12

#P wB97XD/6-311+G* NoSymm
#P Field=Y+214

TitleMe

1 1
C 0.0295 1.3397 0.0682
C 1.4348 1.2867 0.0064
C 2.1118 0.0511 -0.0054
C 1.4451 -1.1372 0.0312
C -0.6879 0.1682 0.1100
H -0.4713 2.2984 0.0781
H 2.0273 2.1965 -0.0322
H 1.9897 -2.0764 0.0232
H -1.7716 0.1804 0.1582
N 3.5864 0.0510 -0.0675
O 4.1471 -1.0597 -0.0881
O 4.1450 1.1639 -0.0901
C -0.0236 -1.1458 0.0835
H -0.4367 -1.8725 0.7889
Br -0.5359 -1.8697 -1.7408






