%chk=geometry.chk
%mem=30GB
%nprocshared=24

#P B3LYP/6-31G*
#P TD=(singlets,nstates=20)  IOp(6/8=3) IOp(9/40=5)

Title Card Required

0 1
C        -17.95886        6.14809       -0.00045
C        -16.61157        6.50974       -0.00283
C        -15.62158        5.53010       -0.00278
C        -15.97716        4.17051       -0.00032
C        -17.33601        3.81211        0.00207
C        -18.31771        4.80006        0.00200
H        -18.73738        6.92500       -0.00050
H        -16.32767        7.57258       -0.00476
H        -14.55949        5.81646       -0.00466
H        -17.62016        2.74943        0.00400
H        -19.37995        4.51395        0.00388
C        -14.98203        3.17746       -0.00025
C        -14.13248        2.32975       -0.00020
C        -13.13775        1.33722       -0.00013
C        -11.77849        1.69421       -0.00180
C        -13.49176       -0.02282        0.00160
C        -10.79429        0.71225       -0.00173
H        -11.49407        2.75721       -0.00316
C        -12.50762       -1.00484        0.00167
H        -14.55413       -0.30957        0.00291
C        -11.14847       -0.64768        0.00000
H         -9.73192        0.99908       -0.00304
H        -12.79216       -2.06779        0.00303
C        -10.15356       -1.64024        0.00007
C         -9.30387       -2.48765        0.00013
C         -8.30905       -3.48130        0.00020
C         -6.95334       -3.11942        0.00017
C         -8.66638       -4.84036        0.00029
C         -5.96009       -4.11055        0.00024
H         -6.66866       -2.05650        0.00010
C         -7.67675       -5.82021        0.00035
H         -9.72887       -5.12580        0.00030
C         -6.32983       -5.46627        0.00033
H         -7.96151       -6.88325        0.00042
H         -5.55230       -6.24460        0.00038
C         -4.60175       -3.74719        0.00021
C         -3.44227       -3.43789        0.00020
C         -2.08450       -3.07541        0.00017
C         -1.71170       -1.72042        0.00130
C         -1.08576       -4.06406       -0.00098
C         -0.36848       -1.36169        0.00128
H         -2.48859       -0.94107        0.00221
C          0.25745       -3.70534       -0.00100
H         -1.37055       -5.12697       -0.00187
C          0.63030       -2.35035        0.00013
H         -0.08369       -0.29876        0.00217
H          1.03430       -4.48471       -0.00191
C          1.98794       -1.98777        0.00011
C          3.14753       -1.67805        0.00009
C          4.50515       -1.31540        0.00007
C          4.87792        0.03962        0.00269
C          5.50398       -2.30401       -0.00257
C          6.22110        0.39842        0.00267
H          4.10103        0.81895        0.00477
C          6.84716       -1.94520       -0.00259
H          5.21922       -3.36694       -0.00463
C          7.21997       -0.59018        0.00003
H          6.50589        1.46134        0.00474
H          7.62407       -2.72451       -0.00466
C          8.57756       -0.22753        0.00001
C          9.73714        0.08224       -0.00000
C         11.09477        0.44492       -0.00002
C         12.09364       -0.54363       -0.00086
C         11.46757        1.79991        0.00080
C         13.43680       -0.18476       -0.00087
H         11.80892       -1.60655       -0.00151
C         12.81075        2.15869        0.00079
H         10.69070        2.57923        0.00145
C         13.80975        1.17022       -0.00005
H         14.21375       -0.96400       -0.00153
H         13.09559        3.22158        0.00142
C         15.16735        1.53290       -0.00004
C         16.32683        1.84265       -0.00004
C         17.68506        2.20550       -0.00003
C         18.68293        1.21596       -0.00267
C         18.05651        3.56084        0.00262
C         20.02697        1.58110       -0.00264
H         18.39798        0.15350       -0.00475
C         19.40358        3.91462        0.00262
H         17.27967        4.33965        0.00470
C         20.38982        2.92806       -0.00000
H         20.80408        0.80243       -0.00472
H         19.68884        4.97710        0.00469
H         21.45242        3.21193        0.00002







