%chk=geometry.chk
%mem=20GB
%nprocshared=12

#p wB97XD/6-311++G** nosymm
#P TD=(singlets,nstates=500) IOp(6/8=3) IOp(9/40=6)

Title Card Required

0 1
C          0.03004        0.06748        0.14845
H         -0.92331       -0.46216        0.17624
C          1.23991       -0.66198        0.09448
C          2.42017        0.05720        0.06070
H          3.38439       -0.45391        0.01838
H          1.24560       -1.74137        0.07979
O          2.45902        1.34037        0.07614
N          0.06902        1.37155        0.16424
H         -0.81340        1.86098        0.20332
H          1.33752        1.65935        0.12167







